Version 4
SHEET 1 1988 724
WIRE -16 -416 -16 -464
WIRE -16 -304 -16 -336
WIRE -16 -304 -64 -304
WIRE 336 -304 -16 -304
WIRE -64 -256 -64 -304
WIRE 1424 -176 1120 -176
WIRE 336 -144 336 -304
WIRE 1120 -32 1120 -176
WIRE 1184 -32 1120 -32
WIRE -240 -16 -304 -16
WIRE -64 -16 -176 -16
WIRE 160 0 32 0
WIRE 880 16 784 16
WIRE 1184 32 1184 -32
WIRE 1200 32 1184 32
WIRE 336 48 336 -144
WIRE 448 48 336 48
WIRE 1424 48 1424 -176
WIRE 1424 48 1264 48
WIRE 1488 48 1424 48
WIRE 656 64 512 64
WIRE 784 64 784 16
WIRE 784 64 736 64
WIRE 816 64 784 64
WIRE 1088 64 928 64
WIRE 1200 64 1088 64
WIRE 160 80 160 0
WIRE 272 80 160 80
WIRE 448 80 272 80
WIRE 1088 192 1088 144
WIRE -720 224 -768 224
WIRE -512 240 -656 240
WIRE -416 240 -512 240
WIRE -304 240 -304 -16
WIRE -304 240 -336 240
WIRE -256 240 -304 240
WIRE -720 256 -768 256
WIRE -64 256 -64 -16
WIRE -64 256 -192 256
WIRE -32 256 -64 256
WIRE 32 256 32 0
WIRE 32 256 -32 256
WIRE -352 272 -368 272
WIRE -256 272 -272 272
WIRE -512 320 -512 240
WIRE -368 320 -368 272
WIRE -768 432 -768 256
WIRE -512 432 -512 400
WIRE -512 432 -768 432
WIRE -512 448 -512 432
WIRE -32 528 -32 256
WIRE -32 528 -512 528
FLAG 480 -48 0
FLAG 480 176 0
FLAG -688 352 0
FLAG -688 128 0
FLAG -224 368 0
FLAG -224 144 0
FLAG 272 80 triangle
IOPIN 272 80 Out
FLAG 1088 192 0
FLAG 1232 160 0
FLAG 1232 -64 0
FLAG -16 -544 0
FLAG 336 -144 Vref
FLAG -368 320 0
FLAG -848 224 0
FLAG 1488 48 out
IOPIN 1488 48 Out
FLAG -16 -192 0
SYMBOL voltage 480 48 R180
WINDOW 0 24 96 Left 2
WINDOW 3 24 16 Left 2
SYMATTR InstName V3
SYMATTR Value 15
SYMBOL voltage 480 192 R180
WINDOW 0 24 96 Left 2
WINDOW 3 24 16 Left 2
SYMATTR InstName V4
SYMATTR Value 15
SYMBOL res -528 304 R0
SYMATTR InstName R1
SYMATTR Value 4k
SYMBOL res -528 432 R0
SYMATTR InstName R2
SYMATTR Value 1k
SYMBOL res -320 224 R90
WINDOW 0 0 56 VBottom 2
WINDOW 3 32 56 VTop 2
SYMATTR InstName R4
SYMATTR Value 28k
SYMBOL cap -176 -32 R90
WINDOW 0 0 32 VBottom 2
WINDOW 3 32 32 VTop 2
SYMATTR InstName C2
SYMATTR Value 0.01µ
SYMBOL voltage -688 224 R180
WINDOW 0 24 96 Left 2
WINDOW 3 24 16 Left 2
SYMATTR InstName V1
SYMATTR Value 15
SYMBOL voltage -688 368 R180
WINDOW 0 24 96 Left 2
WINDOW 3 24 16 Left 2
WINDOW 123 0 0 Left 0
WINDOW 39 0 0 Left 0
SYMATTR InstName V5
SYMATTR Value 15
SYMBOL voltage -224 384 R180
WINDOW 0 24 96 Left 2
WINDOW 3 24 16 Left 2
WINDOW 123 0 0 Left 0
WINDOW 39 0 0 Left 0
SYMATTR InstName V7
SYMATTR Value 15
SYMBOL res 1104 160 R180
WINDOW 0 36 76 Left 2
WINDOW 3 36 40 Left 2
SYMATTR InstName R10
SYMATTR Value 2k
SYMBOL voltage 1232 32 R180
WINDOW 0 24 96 Left 2
WINDOW 3 24 16 Left 2
SYMATTR InstName V2
SYMATTR Value 15
SYMBOL voltage 1232 176 R180
WINDOW 0 24 96 Left 2
WINDOW 3 24 16 Left 2
WINDOW 123 0 0 Left 0
WINDOW 39 0 0 Left 0
SYMATTR InstName V10
SYMATTR Value 15
SYMBOL voltage -224 240 R180
WINDOW 0 24 96 Left 2
WINDOW 3 24 16 Left 2
SYMATTR InstName V6
SYMATTR Value 15
SYMBOL OpAmps\\LTC6244 -688 240 R0
SYMATTR InstName U1
SYMBOL OpAmps\\LTC6244 -224 256 R0
SYMATTR InstName U2
SYMBOL OpAmps\\LTC6244 480 64 R0
SYMATTR InstName U3
SYMBOL OpAmps\\LTC6244 1232 48 R0
SYMATTR InstName U4
SYMBOL voltage -16 -448 R180
WINDOW 0 24 96 Left 2
WINDOW 3 24 16 Left 2
SYMATTR InstName V8
SYMATTR Value 15
SYMBOL res -32 -432 R0
SYMATTR InstName R3
SYMATTR Value 4k
SYMBOL res 752 48 R90
WINDOW 0 0 56 VBottom 2
WINDOW 3 32 56 VTop 2
SYMATTR InstName R5
SYMATTR Value 3k
SYMBOL potentiometru 912 48 R90
WINDOW 39 48 27 Left 0
SYMATTR SpiceLine R=5k, Val=0.1
SYMATTR InstName X2
SYMBOL res -752 208 R90
WINDOW 0 0 56 VBottom 2
WINDOW 3 32 56 VTop 2
SYMATTR InstName R7
SYMATTR Value 0.8k
SYMBOL res -256 256 R90
WINDOW 0 0 56 VBottom 2
WINDOW 3 32 56 VTop 2
SYMATTR InstName R8
SYMATTR Value 28k
SYMBOL potentiometru -32 -288 R0
SYMATTR InstName X1
SYMATTR SpiceLine R=1k Val=99
TEXT 632 256 Left 2 !.tran 5m
